test/data/deprecated/b4gic.json


{
  "bus": {
    "4": {
      "lat": 40,
      "gmd_baseMVA": 100,
      "zone": 1,
      "gmd_k": 0.001,
      "bus_i": 4,
      "lon": -87,
      "bus_type": 3,
      "name": "bus4",
      "sid": 2,
      "gs": 0,
      "vmax": 1,
      "bs": 0,
      "sub": 2,
      "area": 1,
      "vmin": 0.7,
      "index": 4,
      "nid": 4,
      "va": -0,
      "gmd_neu_bus": null,
      "gmd_gs": 0,
      "vm": 1.1,
      "gmd_bus": 6,
      "base_kv": 20,
      "type": "bus"
    },
    "1": {
      "lat": 40,
      "gmd_baseMVA": 100,
      "zone": 1,
      "gmd_k": 0.001,
      "bus_i": 1,
      "lon": -89,
      "bus_type": 1,
      "name": "bus1",
      "sid": 1,
      "gs": 0,
      "vmax": 1.3,
      "bs": 0,
      "sub": 1,
      "area": 1,
      "vmin": 0.7,
      "index": 1,
      "nid": 1,
      "va": -0,
      "gmd_neu_bus": null,
      "gmd_gs": 0,
      "vm": 1.1,
      "gmd_bus": 3,
      "base_kv": 765,
      "type": "bus"
    },
    "2": {
      "lat": 40,
      "gmd_baseMVA": 100,
      "zone": 1,
      "gmd_k": 0.001,
      "bus_i": 2,
      "lon": -87,
      "bus_type": 1,
      "name": "bus2",
      "sid": 2,
      "gs": 0,
      "vmax": 1.3,
      "bs": 0,
      "sub": 2,
      "area": 1,
      "vmin": 0.7,
      "index": 2,
      "nid": 2,
      "va": -0,
      "gmd_neu_bus": null,
      "gmd_gs": 0,
      "vm": 1.1,
      "gmd_bus": 4,
      "base_kv": 765,
      "type": "bus"
    },
    "3": {
      "lat": 40,
      "gmd_baseMVA": 100,
      "zone": 1,
      "gmd_k": 0.001,
      "bus_i": 3,
      "lon": -89,
      "bus_type": 1,
      "name": "bus3",
      "sid": 1,
      "gs": 0,
      "vmax": 1.3,
      "bs": 0,
      "sub": 1,
      "area": 1,
      "vmin": 0.7,
      "index": 3,
      "nid": 3,
      "va": -0,
      "gmd_neu_bus": null,
      "gmd_gs": 0,
      "vm": 1.1,
      "gmd_bus": 5,
      "base_kv": 20,
      "type": "bus"
    }
  },
  "name": "b4gic",
  "dcline": {
    
  },
  "branch": {
    "1": {
      "br_r": 0.0001,
      "rate_a": 9000,
      "data": {
        
      },
      "shift": 0,
      "gmd_k": 1.793,
      "lo_bus": 3,
      "rate_b": 0,
      "name": "xf1",
      "br_x": 0.004,
      "rate_c": 0,
      "len_km": 0,
      "g_to": 0,
      "br_rdc": 0.0001,
      "gmd_br_hi": 1,
      "g_fr": 0,
      "b_fr": 0,
      "f_bus": 1,
      "baseMVA": 100,
      "gmd_vdc": 0,
      "sub": 1,
      "br_status": 1,
      "config": "gwye-delta",
      "hi_bus": 1,
      "rdc_hi": 0.3,
      "t_bus": 3,
      "b_to": 0,
      "index": 1,
      "dc_brid": null,
      "angmin": -30,
      "angmax": 30,
      "rdc_lo": null,
      "gmd_br_lo": null,
      "tap": 1,
      "type": "xf"
    },
    "2": {
      "gmd_br": 2,
      "br_r": 0.000513,
      "rate_a": 9000,
      "data": {
        
      },
      "shift": 0,
      "lo_bus": 2,
      "rate_b": 0,
      "name": "br1",
      "dist_e_km": 170.78806587354,
      "br_x": 0.01,
      "rate_c": 0,
      "len_km": 170.78806587354,
      "g_to": 0,
      "br_rdc": 0.000513,
      "g_fr": 0,
      "b_fr": 0,
      "f_bus": 1,
      "baseMVA": 100,
      "gmd_vdc": 170.78806587354,
      "sub": null,
      "br_status": 1,
      "hi_bus": 1,
      "t_bus": 2,
      "gmd_r_Ohms": 3,
      "index": 2,
      "b_to": 0,
      "angmin": -30,
      "angmax": 30,
      "tap": 1,
      "type": "line",
      "dist_n_km": 0
    },
    "3": {
      "br_r": 0.0001,
      "rate_a": 9000,
      "data": {
        
      },
      "shift": 0,
      "gmd_k": 1.793,
      "lo_bus": 4,
      "rate_b": 0,
      "name": "xf2",
      "br_x": 0.004,
      "rate_c": 0,
      "len_km": 0,
      "g_to": 0,
      "br_rdc": 0.0001,
      "gmd_br_hi": 3,
      "g_fr": 0,
      "b_fr": 0,
      "f_bus": 2,
      "baseMVA": 100,
      "gmd_vdc": 0,
      "sub": 2,
      "br_status": 1,
      "config": "gwye-delta",
      "hi_bus": 2,
      "rdc_hi": 0.3,
      "t_bus": 4,
      "b_to": 0,
      "index": 3,
      "dc_brid": null,
      "angmin": -30,
      "angmax": 30,
      "rdc_lo": null,
      "gmd_br_lo": null,
      "tap": 1,
      "type": "xf"
    }
  },
  "gen": {
    "1": {
      "apf": 0,
      "qc1max": 0,
      "pg": 0,
      "model": 2,
      "shutdown": 0,
      "startup": 0,
      "qc2max": 0,
      "ramp_agc": 0,
      "name": "gen1_cost",
      "qg": 0,
      "gen_bus": 4,
      "pmax": 2000,
      "mbase": 100,
      "vg": 1.1,
      "pc2": 0,
      "index": 1,
      "cost": [
        0.11,
        5,
        0
      ],
      "gen_status": 1,
      "qmax": 2000,
      "qc2min": 0,
      "qc1min": 0,
      "qmin": -2000,
      "pc1": 0,
      "ramp_q": -1000,
      "ramp_30": 0,
      "type": "gen",
      "pmin": 0,
      "ncost": 3
    }
  },
  "gmd_branch": {
    "1": {
      "br_r": 0.1,
      "data": {
        
      },
      "name": "dc_xf1_hi",
      "parent_index": 1,
      "br_v": 0,
      "len_km": 0,
      "f_bus": 3,
      "br_status": 1,
      "t_bus": 1,
      "parent_name": "xf1",
      "index": 1,
      "type": "gwye winding high-side"
    },
    "2": {
      "br_r": 1.00073475,
      "data": {
        
      },
      "name": "dc_br1",
      "parent_index": 2,
      "br_v": 170.78806587354,
      "len_km": 170.78806587354,
      "f_bus": 3,
      "br_status": 1,
      "t_bus": 4,
      "parent_name": "br1",
      "index": 2,
      "type": "line"
    },
    "3": {
      "br_r": 0.1,
      "data": {
        
      },
      "name": "dc_xf2_hi",
      "parent_index": 3,
      "br_v": 0,
      "len_km": 0,
      "f_bus": 4,
      "br_status": 1,
      "t_bus": 2,
      "parent_name": "xf2",
      "index": 3,
      "type": "gwye winding high-side"
    }
  },
  "multinetwork": false,
  "version": "nestay-0.1",
  "baseMVA": 100,
  "sub": {
    "1": {
      "lat": 40,
      "name": "sub1",
      "bus_i": 1,
      "gmd_rs_Ohms": 0.2,
      "gmd_bus": 1,
      "dc_bus_Factory": null,
      "sid": 1,
      "type": "sub",
      "index": 1,
      "lon": -89
    },
    "2": {
      "lat": 40,
      "name": "sub2",
      "bus_i": 2,
      "gmd_rs_Ohms": 0.2,
      "gmd_bus": 2,
      "dc_bus_Factory": null,
      "sid": 2,
      "type": "sub",
      "index": 2,
      "lon": -87
    }
  },
  "area": {
    
  },
  "gmd_e_field_mag": 1,
  "gmd_e_field_dir": 90,
  "per_unit": false,
  "shunt": {
    
  },
  "gmd_bus": {
    "4": {
      "bus_i": 4,
      "g_gnd": 0,
      "name": "dc_bus2",
      "parent_index": 2,
      "parent_type": "bus",
      "index": 4,
      "parent_name": "bus2"
    },
    "1": {
      "bus_i": 1,
      "g_gnd": 5,
      "name": "dc_sub1",
      "parent_index": 1,
      "parent_type": "sub",
      "index": 1,
      "parent_name": "sub1"
    },
    "5": {
      "bus_i": 5,
      "g_gnd": 0,
      "name": "dc_bus3",
      "parent_index": 3,
      "parent_type": "bus",
      "index": 5,
      "parent_name": "bus3"
    },
    "2": {
      "bus_i": 2,
      "g_gnd": 5,
      "name": "dc_sub2",
      "parent_index": 2,
      "parent_type": "sub",
      "index": 2,
      "parent_name": "sub2"
    },
    "6": {
      "bus_i": 6,
      "g_gnd": 0,
      "name": "dc_bus4",
      "parent_index": 4,
      "parent_type": "bus",
      "index": 6,
      "parent_name": "bus4"
    },
    "3": {
      "bus_i": 3,
      "g_gnd": 0,
      "name": "dc_bus1",
      "parent_index": 1,
      "parent_type": "bus",
      "index": 3,
      "parent_name": "bus1"
    }
  },
  "load": {
    "1": {
      "load_bus": 3,
      "status": 1,
      "qd": 200,
      "pd": 1000,
      "index": 1
    }
  }
}

